---- qbsp / ericw-tools v0.18.1 ----
Input file: mp_lobby.map
Output file: mp_lobby.bsp

---- LoadMapFile ----
*** WARNING 06: No info_player_deathmatch entities in level
           36 faces
            6 brushes
            3 entities
            2 unique texnames
           22 texinfo

Opened WAD: /home/bikkie/Documents/Games/Quake/../../Mod/Quake/Wads/prototype_1_3.wad
Processing hull 0...
---- Brush_LoadEntity ----
            6 brushes
           12 planes
---- CSGFaces ----
           36 brushfaces
           36 csgfaces
           36 mergedfaces
---- SolidBSP ----
           24 split nodes
            6 solid leafs
           19 empty leafs
            0 water leafs
            0 detail leafs
            0 detail illusionary leafs
            0 detail fence leafs
            0 illusionary visblocker leafs
           96 leaffaces
           96 nodefaces
---- Portalize ----
           19 vis leafs
           19 vis clusters
           40 vis portals
---- FillOutside ----
           18 outleafs
---- MergeAll ----
            6 mergefaces
---- SolidBSP ----
            6 split nodes
            6 solid leafs
            1 empty leafs
            0 water leafs
            0 detail leafs
            0 detail illusionary leafs
            0 detail fence leafs
            0 illusionary visblocker leafs
           24 leaffaces
           24 nodefaces
---- Portalize ----
            1 vis leafs
            1 vis clusters
            0 vis portals
---- Tjunc ----
           24 world edges
           76 edge points
            8 edges added by tjunctions
            0 faces added by tjunctions
---- MakeFaceEdges ----
---- GrowRegions ----
Processing hull 1...
Processing hull 2...
*** WARNING 16: Texture __TB_empty not found
---- WriteBSPFile ----
Wrote mp_lobby.bsp
           17 planes              340
           30 vertexes            360
            6 nodes               264
            6 texinfo             240
           24 faces               672
           12 clipnodes           144
            2 leafs                88
           24 marksurfaces         96
          104 surfedges           416
           53 edges               424
            2 textures          21812
              lightdata             0
              visdata               0
              entdata             300

0.060 seconds elapsed
Peak memory usage: 383964 (375.0k)
